Version 4
SHEET 1 1428 400
WIRE 208 0 0 0
WIRE 272 0 208 0
WIRE 400 0 336 0
WIRE 528 0 480 0
WIRE 592 0 528 0
WIRE 720 0 656 0
WIRE 848 0 800 0
WIRE 912 0 848 0
WIRE 1040 0 976 0
WIRE 1168 0 1120 0
WIRE 1376 0 1168 0
WIRE 0 64 0 0
WIRE 208 64 208 0
WIRE 528 64 528 0
WIRE 848 64 848 0
WIRE 1168 64 1168 0
WIRE 1376 64 1376 0
WIRE 0 208 0 144
WIRE 208 208 208 128
WIRE 528 208 528 128
WIRE 848 208 848 128
WIRE 1168 208 1168 128
WIRE 1376 208 1376 144
FLAG 0 208 0
FLAG 208 208 0
FLAG 528 208 0
FLAG 848 208 0
FLAG 1168 208 0
FLAG 1376 208 0
SYMBOL voltage 0 48 R0
WINDOW 123 40 48 Left 2
WINDOW 39 39 77 Left 2
SYMATTR Value2 AC 1 0
SYMATTR SpiceLine Rser=50.00
SYMATTR InstName V1
SYMATTR Value ""
SYMBOL cap 192 64 R0
SYMATTR InstName C1
SYMATTR Value 110.0p
SYMBOL cap 272 16 R270
WINDOW 0 32 32 VTop 2
WINDOW 3 0 32 VBottom 2
SYMATTR InstName C2
SYMATTR Value 39.00p
SYMBOL ind 384 16 R270
WINDOW 0 32 56 VTop 2
WINDOW 3 5 56 VBottom 2
SYMATTR InstName L2
SYMATTR Value 1.780µ
SYMBOL cap 512 64 R0
SYMATTR InstName C3
SYMATTR Value 240.0p
SYMBOL cap 592 16 R270
WINDOW 0 32 32 VTop 2
WINDOW 3 0 32 VBottom 2
SYMATTR InstName C4
SYMATTR Value 43.00p
SYMBOL ind 704 16 R270
WINDOW 0 32 56 VTop 2
WINDOW 3 5 56 VBottom 2
SYMATTR InstName L4
SYMATTR Value 1.780µ
SYMBOL cap 832 64 R0
SYMATTR InstName C5
SYMATTR Value 240.0p
SYMBOL cap 912 16 R270
WINDOW 0 32 32 VTop 2
WINDOW 3 0 32 VBottom 2
SYMATTR InstName C6
SYMATTR Value 39.00p
SYMBOL ind 1024 16 R270
WINDOW 0 32 56 VTop 2
WINDOW 3 5 56 VBottom 2
SYMATTR InstName L6
SYMATTR Value 1.780µ
SYMBOL cap 1152 64 R0
SYMATTR InstName C7
SYMATTR Value 110.0p
SYMBOL res 1360 48 R0
SYMATTR InstName RL
SYMATTR Value 50
TEXT 16 -288 Left 2 !.ac dec 1001 12.10Meg 38.02Meg
TEXT 16 -240 Left 2 !.net I(RL) V1
TEXT 480 -288 Left 2 ;3rd Order Chebyshev Bandpass\nDirect-Coupled, Shunt Capacitor\nLower Cutoff Freq. = 20 MHz; Upper Cutoff Freq. = 23 MHz\nPassband Ripple = 0.10 dB\n\nrf-tools.com | Mar 23 2024 15:05
